/*--------------------------------*- C++ -*----------------------------------*\
  =========                 |
  \\      /  F ield         | OpenFOAM: The Open Source CFD Toolbox
   \\    /   O peration     | Website:  https://openfoam.org
    \\  /    A nd           | Version:  11
     \\/     M anipulation  |
\*---------------------------------------------------------------------------*/
FoamFile
{
    format      ascii;
    class       dictionary;
    location    "constant";
    object      turbulenceProperties;
}
// * * * * * * * * * * * * * * * * * * * * * * * * * * * * * * * * * * * * * //

simulationType RAS;

RAS
{
    RASModel        kOmegaSST;
    
    turbulence      on;
    
    printCoeffs     on;
    
    kOmegaSSTCoeffs
    {
        alphaK1     0.85;
        alphaK2     1.0;
        alphaOmega1 0.5;
        alphaOmega2 0.856;
        gamma1      0.555556;
        gamma2      0.44;
        beta1       0.075;
        beta2       0.0828;
        betaStar    0.09;
        a1          0.31;
        b1          1.0;
        c1          10.0;
        F3          no;
    }
}

// * * * * * * * * * * * * * * * * * * * * * * * * * * * * * * * * * * * * * //