/*--------------------------------*- C++ -*----------------------------------*\
  =========                 |
  \\      /  F ield         | OpenFOAM: The Open Source CFD Toolbox
   \\    /   O peration     | Website:  https://openfoam.org
    \\  /    A nd           | Version:  11
     \\/     M anipulation  |
\*---------------------------------------------------------------------------*/
FoamFile
{
    version     2.0;
    format      ascii;
    class       dictionary;
    object      controlDict;
}
// * * * * * * * * * * * * * * * * * * * * * * * * * * * * * * * * * * * * * //

application     simpleFoam;

startFrom       latestTime;

startTime       0;

stopAt          endTime;

endTime         1.5;

deltaT          0.002;

writeControl    timeStep;

writeInterval   1;

purgeWrite      0;

writeFormat     ascii;

writePrecision  6;

writeCompression off;

timeFormat      general;

timePrecision   6;

runTimeModifiable true;

functions
{
    streamlines
    {
        type            streamlines;
        libs            ("libfieldFunctionObjects.so");
        
        seedSampleSet
        {
            type        uniform;
            axis        xy;
            start       (-2.0 -1.2 -0.01);
            end         ( 2.0  1.2 -0.01);
            nPoints     (10 10 1);
        }
        
        direction       forward;
        maxSteps        10000;
        stepSize        0.001;
        lifeTime        1000;
        trackLength     5.0;
        interpolationScheme cellPoint;
        fields          (U);
        setFormat       vtk;
    }
}

// ************************************************************************* //